omf/solvers/opendss/iowa240.clean_reduced.dss
clear
new object=circuit.240_node_test_system
edit object=vsource.source bus1=eq_source_bus.1.2.3 phases=3 angle=0.00000 pu=1.00000 basekv=69.00000 r1=4.5426 x1=10.527 r0=7.3655 x0=24.505
new object=linecode.oh_3p_type1 nphases=3 units=mi rmatrix=[0.61592700,0.17092700,0.17092700|0.17092700,0.61592700,0.17092700|0.17092700,0.17092700,0.61592700] xmatrix=[1.20938900,0.43318800,0.43318800|0.43318800,1.20938900,0.43318800|0.43318800,0.43318800,1.20938900]
new object=linecode.oh_2p_type2 nphases=2 units=mi rmatrix=[0.58925500,0.16949500|0.16949500,0.58925500] xmatrix=[1.07485600,0.38787600|0.38787600,1.07485600]
new object=linecode.oh_1p_type2 nphases=1 units=mi rmatrix=[0.59247300] xmatrix=[1.06582100]
new object=linecode.oh_3p_type5 nphases=3 units=mi rmatrix=[1.19160200,0.23484900,0.23484900|0.23484900,1.19160200,0.23484900|0.23484900,0.23484900,1.19160200] xmatrix=[1.20945200,0.48926300,0.48926300|0.48926300,1.20945200,0.48926300|0.48926300,0.48926300,1.20945200]
new object=linecode.oh_1p_type5 nphases=1 units=mi rmatrix=[1.19426000] xmatrix=[1.20542000]
new object=linecode.ug_3p_type1 nphases=3 units=mi rmatrix=[1.00942300,0.40973200,0.40973200|0.40973200,1.00942300,0.40973200|0.40973200,0.40973200,1.00942300] xmatrix=[0.49316400,0.10084900,0.10084900|0.10084900,0.49316400,0.10084900|0.10084900,0.10084900,0.49316400] cmatrix=[286.10159300,0.00000000,0.00000000|0.00000000,286.10159300,0.00000000|0.00000000,0.00000000,286.10159300]
new object=linecode.ug_3p_type2 nphases=3 units=mi rmatrix=[1.69257700,0.55008700,0.55008700|0.55008700,1.69257700,0.55008700|0.55008700,0.55008700,1.69257700] xmatrix=[0.79175600,0.34493100,0.34493100|0.34493100,0.79175600,0.34493100|0.34493100,0.34493100,0.79175600] cmatrix=[207.88053900,0.00000000,0.00000000|0.00000000,207.88053900,0.00000000|0.00000000,0.00000000,207.88053900]
new object=linecode.ug_1p_type2 nphases=1 units=mi rmatrix=[1.67533800] xmatrix=[1.21000700] cmatrix=[207.88053900]
new object=loadshape.default npts=24 interval=1 mult=[0.677,0.6256,0.6087,0.5833,0.58028,0.6025,0.657,0.7477,0.832,0.88,0.94,0.989,0.985,0.98,0.9898,0.999,1,0.958,0.936,0.913,0.876,0.876,0.828,0.756]
new object=growthshape.default npts=2 year=[1,20] mult=[1.025,1.025]
new object=tcc_curve.a npts=5 c_array=[1,2.5,4.5,8,14] t_array=[0.15,0.07,0.05,0.045,0.045]
new object=tcc_curve.d npts=5 c_array=[1,2.5,4.5,8,14] t_array=[6,0.7,0.2,0.06,0.02]
new object=tcc_curve.tlink npts=7 c_array=[2,2.1,3,4,6,22,50] t_array=[300,100,10.1,4,1.4,0.1,0.02]
new object=tcc_curve.klink npts=6 c_array=[2,2.2,3,4,6,30] t_array=[300,20,4,1.3,0.41,0.02]
new object=tcc_curve.uv1547 npts=2 c_array=[0.5,0.9] t_array=[0.166,2]
new object=tcc_curve.ov1547 npts=2 c_array=[1.1,1.2] t_array=[2,0.166]
new object=tcc_curve.mod_inv npts=15 c_array=[1.1,1.3,1.5,2,3,4,5,6,7,8,9,10,20,50,100] t_array=[27.1053,9.9029,6.439,3.8032,2.4322,1.9458,1.6883,1.5255,1.4117,1.3267,1.2604,1.2068,0.9481,0.7468,0.6478]
new object=tcc_curve.very_inv npts=15 c_array=[1.1,1.3,1.5,2,3,4,5,6,7,8,9,10,20,50,100] t_array=[93.872,28.9113,16.179,7.0277,2.9423,1.7983,1.3081,1.0513,0.8995,0.8023,0.7361,0.6891,0.5401,0.4988,0.493]
new object=tcc_curve.ext_inv npts=15 c_array=[1.1,1.3,1.5,2,3,4,5,6,7,8,9,10,20,50,100] t_array=[134.407,40.9913,22.6817,9.5217,3.6467,2.0017,1.2967,0.9274,0.7092,0.5693,0.4742,0.4065,0.1924,0.133,0.1245]
new object=tcc_curve.definite npts=3 c_array=[1,1.001,100] t_array=[300,1,1]
new object=spectrum.default numharm=7 harmonic=[1,3,5,7,9,11,13] %mag=[100,33,20,14,11,9,7] angle=[0,0,0,0,0,0,0]
new object=spectrum.defaultload numharm=7 harmonic=[1,3,5,7,9,11,13] %mag=[100,1.5,20,14,1,9,7] angle=[0,180,180,180,180,180,180]
new object=spectrum.defaultgen numharm=7 harmonic=[1,3,5,7,9,11,13] %mag=[100,5,3,1.5,1,0.7,0.5] angle=[0,0,0,0,0,0,0]
new object=spectrum.defaultvsource numharm=1 harmonic=[1] %mag=[100] angle=[0]
new object=spectrum.linear numharm=1 harmonic=[1] %mag=[100] angle=[0]
new object=spectrum.pwm6 numharm=13 harmonic=[1,3,5,7,9,11,13,15,17,19,21,23,25] %mag=[100,4.4,76.5,62.7,2.9,24.8,12.7,0.5,7.1,8.4,0.9,4.4,3.3] angle=[-103,-5,28,-180,-33,-59,79,36,-253,-124,3,-30,86]
new object=spectrum.dc6 numharm=10 harmonic=[1,3,5,7,9,11,13,15,17,19] %mag=[100,1.2,33.6,1.6,0.4,8.7,1.2,0.3,4.5,1.3] angle=[-75,28,156,29,-91,49,54,148,-57,-46]
new object=line.l_1001_1002 phases=3 bus1=bus1001.1.2.3 bus2=bus1002.1.2.3 length=2967 units=ft linecode=ug_3p_type1 seasons=1 ratings=[400] normamps=400 emergamps=600
new object=line.l_1002_1003 phases=3 bus1=bus1002.1.2.3 bus2=bus1003.1.2.3 length=372 units=ft linecode=ug_3p_type2 seasons=1 ratings=[400] normamps=400 emergamps=600
new object=line.l_1002_1004 phases=3 bus1=bus1002.1.2.3 bus2=bus1004.1.2.3 length=638 units=ft linecode=oh_3p_type1 seasons=1 ratings=[400] normamps=400 emergamps=600
new object=line.l_1004_1005 phases=3 bus1=bus1004.1.2.3 bus2=bus1005.1.2.3 length=394 units=ft linecode=oh_3p_type1 seasons=1 ratings=[400] normamps=400 emergamps=600
new object=line.l_1005_1006 phases=3 bus1=bus1005.1.2.3 bus2=bus1006.1.2.3 length=1049 units=ft linecode=oh_3p_type1 seasons=1 ratings=[400] normamps=400 emergamps=600
new object=line.l_1006_1007 phases=2 bus1=bus1006.1.2 bus2=bus1007.1.2 length=2000 units=ft linecode=oh_2p_type2 seasons=1 ratings=[400] normamps=400 emergamps=600
new object=line.l_1006_1008 phases=3 bus1=bus1006.1.2.3 bus2=bus1008.1.2.3 length=454 units=ft linecode=oh_3p_type1 seasons=1 ratings=[400] normamps=400 emergamps=600
new object=line.l_1008_1009 phases=3 bus1=bus1008.1.2.3 bus2=bus1009.1.2.3 length=1082 units=ft linecode=oh_3p_type1 seasons=1 ratings=[400] normamps=400 emergamps=600
new object=line.l_1009_1010 phases=3 bus1=bus1009.1.2.3 bus2=bus1010.1.2.3 length=169 units=ft linecode=oh_3p_type1 seasons=1 ratings=[400] normamps=400 emergamps=600
new object=line.l_1009_1011 phases=3 bus1=bus1009.1.2.3 bus2=bus1011.1.2.3 length=60 units=ft linecode=ug_3p_type2 seasons=1 ratings=[400] normamps=400 emergamps=600
new object=line.l_1011_1012 phases=3 bus1=bus1011.1.2.3 bus2=bus1012.1.2.3 length=60 units=ft linecode=ug_3p_type2 seasons=1 ratings=[400] normamps=400 emergamps=600
new object=line.l_1012_1013 phases=3 bus1=bus1012.1.2.3 bus2=bus1013.1.2.3 length=306 units=ft linecode=ug_3p_type2 seasons=1 ratings=[400] normamps=400 emergamps=600
new object=line.l_1013_1014 phases=1 bus1=bus1013.2.0 bus2=bus1014.2.0 length=208 units=ft linecode=ug_1p_type2 seasons=1 ratings=[400] normamps=400 emergamps=600
new object=line.l_1014_1015 phases=1 bus1=bus1014.2.0 bus2=bus1015.2.0 length=126 units=ft linecode=ug_1p_type2 seasons=1 ratings=[400] normamps=400 emergamps=600
new object=line.l_1013_1016 phases=1 bus1=bus1013.3.0 bus2=bus1016.3.0 length=468 units=ft linecode=ug_1p_type2 seasons=1 ratings=[400] normamps=400 emergamps=600
new object=line.l_1016_1017 phases=1 bus1=bus1016.3.0 bus2=bus1017.3.0 length=71 units=ft linecode=ug_1p_type2 seasons=1 ratings=[400] normamps=400 emergamps=600
new object=line.l_2001_2002 phases=3 bus1=bus2001.1.2.3 bus2=bus2002.1.2.3 length=1388 units=ft linecode=ug_3p_type1 seasons=1 ratings=[400] normamps=400 emergamps=600
new object=line.l_2002_2003 phases=3 bus1=bus2002.1.2.3 bus2=bus2003.1.2.3 length=1281 units=ft linecode=oh_3p_type1 seasons=1 ratings=[400] normamps=400 emergamps=600
new object=line.l_2003_2004 phases=3 bus1=bus2003.1.2.3 bus2=bus2005.1.2.3 length=1115.0 units=ft linecode=oh_3p_type1 seasons=1 ratings=[400] normamps=400 emergamps=600
new object=line.l_2005_2006 phases=3 bus1=bus2005.1.2.3 bus2=bus2006.1.2.3 length=145 units=ft linecode=oh_3p_type1 seasons=1 ratings=[400] normamps=400 emergamps=600
new object=line.l_2006_2007 phases=1 bus1=bus2006.1 bus2=bus2007.1 length=245 units=ft linecode=oh_1p_type5 seasons=1 ratings=[400] normamps=400 emergamps=600
new object=line.l_2007_2008 phases=1 bus1=bus2007.1 bus2=bus2008.1 length=125 units=ft linecode=ug_1p_type2 seasons=1 ratings=[400] normamps=400 emergamps=600
new object=line.l_2007_2009 phases=1 bus1=bus2007.1 bus2=bus2009.1 length=161 units=ft linecode=oh_1p_type2 seasons=1 ratings=[400] normamps=400 emergamps=600
new object=line.l_2006_2010 phases=3 bus1=bus2006.1.2.3 bus2=bus2010.1.2.3 length=170 units=ft linecode=oh_3p_type1 seasons=1 ratings=[400] normamps=400 emergamps=600
new object=line.l_2010_2011 phases=3 bus1=bus2010.1.2.3 bus2=bus2011.1.2.3 length=275 units=ft linecode=oh_3p_type1 seasons=1 ratings=[400] normamps=400 emergamps=600
new object=line.l_2011_2012 phases=3 bus1=bus2011.1.2.3 bus2=bus2012.1.2.3 length=503 units=ft linecode=oh_3p_type1 seasons=1 ratings=[400] normamps=400 emergamps=600
new object=line.l_2013_2014 phases=3 bus1=bus2013.1.2.3 bus2=bus2014.1.2.3 length=268 units=ft linecode=oh_3p_type1 seasons=1 ratings=[400] normamps=400 emergamps=600
new object=line.l_2014_2015 phases=1 bus1=bus2014.2 bus2=bus2015.2 length=120 units=ft linecode=ug_1p_type2 seasons=1 ratings=[400] normamps=400 emergamps=600
new object=line.l_2014_2016 phases=3 bus1=bus2014.1.2.3 bus2=bus2016.1.2.3 length=257 units=ft linecode=oh_3p_type1 seasons=1 ratings=[400] normamps=400 emergamps=600
new object=line.l_2016_2017 phases=3 bus1=bus2016.1.2.3 bus2=bus2017.1.2.3 length=174 units=ft linecode=ug_3p_type2 seasons=1 ratings=[400] normamps=400 emergamps=600
new object=line.l_2017_2018 phases=3 bus1=bus2017.1.2.3 bus2=bus2018.1.2.3 length=447 units=ft linecode=ug_3p_type2 seasons=1 ratings=[400] normamps=400 emergamps=600
new object=line.l_2013_2019 phases=3 bus1=bus2013.1.2.3 bus2=bus2019.1.2.3 length=45 units=ft linecode=oh_3p_type1 seasons=1 ratings=[400] normamps=400 emergamps=600
new object=line.l_2019_2020 phases=1 bus1=bus2019.2 bus2=bus2020.2 length=642 units=ft linecode=ug_1p_type2 seasons=1 ratings=[400] normamps=400 emergamps=600
new object=line.l_2019_2021 phases=3 bus1=bus2019.1.2.3 bus2=bus2021.1.2.3 length=43 units=ft linecode=oh_3p_type1 seasons=1 ratings=[400] normamps=400 emergamps=600
new object=line.l_2021_2022 phases=1 bus1=bus2021.3 bus2=bus2022.3 length=205 units=ft linecode=ug_1p_type2 seasons=1 ratings=[400] normamps=400 emergamps=600
new object=line.l_2022_2023 phases=1 bus1=bus2022.3 bus2=bus2023.3 length=150 units=ft linecode=ug_1p_type2 seasons=1 ratings=[400] normamps=400 emergamps=600
new object=line.l_2023_2024 phases=1 bus1=bus2023.3 bus2=bus2024.3 length=408 units=ft linecode=ug_1p_type2 seasons=1 ratings=[400] normamps=400 emergamps=600
new object=line.l_2024_2025 phases=1 bus1=bus2024.3 bus2=bus2025.3 length=331 units=ft linecode=ug_1p_type2 seasons=1 ratings=[400] normamps=400 emergamps=600
new object=line.l_2026_2027 phases=3 bus1=bus2026.1.2.3 bus2=bus2027.1.2.3 length=369 units=ft linecode=oh_3p_type1 seasons=1 ratings=[400] normamps=400 emergamps=600
new object=line.l_2027_2028 phases=3 bus1=bus2027.1.2.3 bus2=bus2028.1.2.3 length=285 units=ft linecode=ug_3p_type2 seasons=1 ratings=[400] normamps=400 emergamps=600
new object=line.l_2028_2029 phases=3 bus1=bus2028.1.2.3 bus2=bus2029.1.2.3 length=131 units=ft linecode=ug_3p_type2 seasons=1 ratings=[400] normamps=400 emergamps=600
new object=line.l_2029_2030 phases=3 bus1=bus2029.1.2.3 bus2=bus2030.1.2.3 length=165 units=ft linecode=ug_3p_type2 seasons=1 ratings=[400] normamps=400 emergamps=600
new object=line.l_2030_2031 phases=3 bus1=bus2030.1.2.3 bus2=bus2031.1.2.3 length=245 units=ft linecode=ug_3p_type2 seasons=1 ratings=[400] normamps=400 emergamps=600
new object=line.l_2027_2032 phases=3 bus1=bus2027.1.2.3 bus2=bus2032.1.2.3 length=149 units=ft linecode=oh_3p_type1 seasons=1 ratings=[400] normamps=400 emergamps=600
new object=line.l_2032_2033 phases=3 bus1=bus2032.1.2.3 bus2=bus2033.1.2.3 length=289 units=ft linecode=oh_3p_type1 seasons=1 ratings=[400] normamps=400 emergamps=600
new object=line.l_2033_2034 phases=3 bus1=bus2033.1.2.3 bus2=bus2034.1.2.3 length=185 units=ft linecode=oh_3p_type5 seasons=1 ratings=[400] normamps=400 emergamps=600
new object=line.l_2033_2035 phases=3 bus1=bus2033.1.2.3 bus2=bus2035.1.2.3 length=160 units=ft linecode=oh_3p_type1 seasons=1 ratings=[400] normamps=400 emergamps=600
new object=line.l_2035_2036 phases=3 bus1=bus2035.1.2.3 bus2=bus2037.1.2.3 length=240.0 units=ft linecode=oh_3p_type1 seasons=1 ratings=[400] normamps=400 emergamps=600
new object=line.l_2037_2038 phases=3 bus1=bus2037.1.2.3 bus2=bus2038.1.2.3 length=192 units=ft linecode=oh_3p_type1 seasons=1 ratings=[400] normamps=400 emergamps=600
new object=line.l_2038_2039 phases=3 bus1=bus2038.1.2.3 bus2=bus2039.1.2.3 length=800 units=ft linecode=oh_3p_type1 seasons=1 ratings=[400] normamps=400 emergamps=600
new object=line.l_2039_2040 phases=3 bus1=bus2039.1.2.3 bus2=bus2040.1.2.3 length=309 units=ft linecode=oh_3p_type1 seasons=1 ratings=[400] normamps=400 emergamps=600
new object=line.l_2040_2041 phases=3 bus1=bus2040.1.2.3 bus2=bus2041.1.2.3 length=383 units=ft linecode=oh_3p_type1 seasons=1 ratings=[400] normamps=400 emergamps=600
new object=line.l_2039_2042 phases=3 bus1=bus2039.1.2.3 bus2=bus2042.1.2.3 length=35 units=ft linecode=ug_3p_type2 seasons=1 ratings=[400] normamps=400 emergamps=600
new object=line.l_2042_2043 phases=3 bus1=bus2042.1.2.3 bus2=bus2043.1.2.3 length=158 units=ft linecode=ug_3p_type2 seasons=1 ratings=[400] normamps=400 emergamps=600
new object=line.l_2043_2044 phases=3 bus1=bus2043.1.2.3 bus2=bus2044.1.2.3 length=342 units=ft linecode=ug_3p_type2 seasons=1 ratings=[400] normamps=400 emergamps=600
new object=line.l_2044_2045 phases=1 bus1=bus2044.2 bus2=bus2045.2 length=323 units=ft linecode=ug_1p_type2 seasons=1 ratings=[400] normamps=400 emergamps=600
new object=line.l_2045_2046 phases=1 bus1=bus2045.2 bus2=bus2046.2 length=330 units=ft linecode=ug_1p_type2 seasons=1 ratings=[400] normamps=400 emergamps=600
new object=line.l_2045_2047 phases=1 bus1=bus2045.2 bus2=bus2047.2 length=189 units=ft linecode=ug_1p_type2 seasons=1 ratings=[400] normamps=400 emergamps=600
new object=line.l_2047_2048 phases=1 bus1=bus2047.2 bus2=bus2048.2 length=259 units=ft linecode=ug_1p_type2 seasons=1 ratings=[400] normamps=400 emergamps=600
new object=line.l_2044_2049 phases=3 bus1=bus2044.1.2.3 bus2=bus2049.1.2.3 length=130 units=ft linecode=ug_3p_type2 seasons=1 ratings=[400] normamps=400 emergamps=600
new object=line.l_2049_2050 phases=3 bus1=bus2049.1.2.3 bus2=bus2050.1.2.3 length=124 units=ft linecode=ug_3p_type2 seasons=1 ratings=[400] normamps=400 emergamps=600
new object=line.l_2050_2051 phases=3 bus1=bus2050.1.2.3 bus2=bus2051.1.2.3 length=139 units=ft linecode=ug_3p_type2 seasons=1 ratings=[400] normamps=400 emergamps=600
new object=line.l_2051_2052 phases=3 bus1=bus2051.1.2.3 bus2=bus2052.1.2.3 length=134 units=ft linecode=ug_3p_type2 seasons=1 ratings=[400] normamps=400 emergamps=600
new object=line.l_2044_2053 phases=3 bus1=bus2044.1.2.3 bus2=bus2053.1.2.3 length=464 units=ft linecode=ug_3p_type2 seasons=1 ratings=[400] normamps=400 emergamps=600
new object=line.l_2053_2054 phases=3 bus1=bus2053.1.2.3 bus2=bus2054.1.2.3 length=139 units=ft linecode=ug_3p_type2 seasons=1 ratings=[400] normamps=400 emergamps=600
new object=line.l_2054_2055 phases=3 bus1=bus2054.1.2.3 bus2=bus2055.1.2.3 length=156 units=ft linecode=ug_3p_type2 seasons=1 ratings=[400] normamps=400 emergamps=600
new object=line.l_2055_2056 phases=3 bus1=bus2055.1.2.3 bus2=bus2056.1.2.3 length=204 units=ft linecode=ug_3p_type2 seasons=1 ratings=[400] normamps=400 emergamps=600
new object=line.l_2053_2057 phases=3 bus1=bus2053.1.2.3 bus2=bus2057.1.2.3 length=761 units=ft linecode=ug_3p_type2 seasons=1 ratings=[400] normamps=400 emergamps=600
new object=line.l_2057_2058 phases=3 bus1=bus2057.1.2.3 bus2=bus2058.1.2.3 length=407 units=ft linecode=ug_3p_type2 seasons=1 ratings=[400] normamps=400 emergamps=600
new object=line.l_2057_2059 phases=3 bus1=bus2057.1.2.3 bus2=bus2059.1.2.3 length=685 units=ft linecode=ug_3p_type2 seasons=1 ratings=[400] normamps=400 emergamps=600
new object=line.l_2059_2060 phases=3 bus1=bus2059.1.2.3 bus2=bus2060.1.2.3 length=304 units=ft linecode=ug_3p_type2 seasons=1 ratings=[400] normamps=400 emergamps=600
new object=line.l_3001_3003 phases=3 bus1=bus3001.1.2.3 bus2=bus3003.1.2.3 length=2307 units=ft linecode=ug_3p_type1 seasons=1 ratings=[400] normamps=400 emergamps=600
new object=line.l_3003_3002 phases=3 bus1=bus3003.1.2.3 bus2=bus3002.1.2.3 length=85 units=ft linecode=ug_3p_type2 seasons=1 ratings=[400] normamps=400 emergamps=600
new object=line.l_3003_3004 phases=3 bus1=bus3003.1.2.3 bus2=bus3004.1.2.3 length=81 units=ft linecode=ug_3p_type2 seasons=1 ratings=[400] normamps=400 emergamps=600
new object=line.l_3003_3005 phases=3 bus1=bus3003.1.2.3 bus2=bus3005.1.2.3 length=1997 units=ft linecode=ug_3p_type1 seasons=1 ratings=[400] normamps=400 emergamps=600
new object=line.l_3005_3006 phases=3 bus1=bus3005.1.2.3 bus2=bus3006.1.2.3 length=311 units=ft linecode=oh_3p_type1 seasons=1 ratings=[400] normamps=400 emergamps=600
new object=line.l_3006_3007 phases=3 bus1=bus3006.1.2.3 bus2=bus3007.1.2.3 length=370 units=ft linecode=oh_3p_type1 seasons=1 ratings=[400] normamps=400 emergamps=600
new object=line.l_3005_3008 phases=3 bus1=bus3005.1.2.3 bus2=bus3008.1.2.3 length=136 units=ft linecode=oh_3p_type1 seasons=1 ratings=[400] normamps=400 emergamps=600
new object=line.l_3008_3009 phases=1 bus1=bus3008.1 bus2=bus3009.1 length=161 units=ft linecode=oh_1p_type5 seasons=1 ratings=[400] normamps=400 emergamps=600
new object=line.l_3009_3010 phases=1 bus1=bus3009.1 bus2=bus3010.1 length=347 units=ft linecode=oh_1p_type5 seasons=1 ratings=[400] normamps=400 emergamps=600
new object=line.l_3010_3011 phases=1 bus1=bus3010.1 bus2=bus3011.1 length=265 units=ft linecode=oh_1p_type5 seasons=1 ratings=[400] normamps=400 emergamps=600
new object=line.l_3011_3012 phases=1 bus1=bus3011.1 bus2=bus3012.1 length=312 units=ft linecode=oh_1p_type5 seasons=1 ratings=[400] normamps=400 emergamps=600
new object=line.l_3008_3013 phases=1 bus1=bus3008.2 bus2=bus3013.2 length=170 units=ft linecode=oh_1p_type5 seasons=1 ratings=[400] normamps=400 emergamps=600
new object=line.l_3013_3014 phases=1 bus1=bus3013.2 bus2=bus3014.2 length=295 units=ft linecode=oh_1p_type5 seasons=1 ratings=[400] normamps=400 emergamps=600
new object=line.l_3008_3015 phases=3 bus1=bus3008.1.2.3 bus2=bus3015.1.2.3 length=322 units=ft linecode=oh_3p_type1 seasons=1 ratings=[400] normamps=400 emergamps=600
new object=line.l_3015_3016 phases=1 bus1=bus3015.2 bus2=bus3016.2 length=210 units=ft linecode=oh_1p_type5 seasons=1 ratings=[400] normamps=400 emergamps=600
new object=line.l_3016_3017 phases=1 bus1=bus3016.2 bus2=bus3017.2 length=259 units=ft linecode=oh_1p_type5 seasons=1 ratings=[400] normamps=400 emergamps=600
new object=line.l_3015_3018 phases=1 bus1=bus3015.3 bus2=bus3018.3 length=181 units=ft linecode=oh_1p_type5 seasons=1 ratings=[400] normamps=400 emergamps=600
new object=line.l_3018_3019 phases=1 bus1=bus3018.3 bus2=bus3019.3 length=281 units=ft linecode=oh_1p_type5 seasons=1 ratings=[400] normamps=400 emergamps=600
new object=line.l_3019_3020 phases=1 bus1=bus3019.3 bus2=bus3020.3 length=307 units=ft linecode=oh_1p_type5 seasons=1 ratings=[400] normamps=400 emergamps=600
new object=line.l_3020_3021 phases=1 bus1=bus3020.3 bus2=bus3021.3 length=303 units=ft linecode=oh_1p_type5 seasons=1 ratings=[400] normamps=400 emergamps=600
new object=line.l_3015_3022 phases=3 bus1=bus3015.1.2.3 bus2=bus3022.1.2.3 length=289 units=ft linecode=oh_3p_type1 seasons=1 ratings=[400] normamps=400 emergamps=600
new object=line.l_3022_3023 phases=1 bus1=bus3022.1 bus2=bus3023.1 length=181 units=ft linecode=oh_1p_type5 seasons=1 ratings=[400] normamps=400 emergamps=600
new object=line.l_3023_3024 phases=1 bus1=bus3023.1 bus2=bus3024.1 length=320 units=ft linecode=oh_1p_type5 seasons=1 ratings=[400] normamps=400 emergamps=600
new object=line.l_3024_3025 phases=1 bus1=bus3024.1 bus2=bus3025.1 length=331 units=ft linecode=oh_1p_type5 seasons=1 ratings=[400] normamps=400 emergamps=600
new object=line.l_3022_3026 phases=1 bus1=bus3022.1 bus2=bus3026.1 length=164 units=ft linecode=oh_1p_type5 seasons=1 ratings=[400] normamps=400 emergamps=600
new object=line.l_3026_3027 phases=1 bus1=bus3026.1 bus2=bus3027.1 length=368 units=ft linecode=oh_1p_type5 seasons=1 ratings=[400] normamps=400 emergamps=600
new object=line.l_3027_3028 phases=1 bus1=bus3027.1 bus2=bus3028.1 length=241 units=ft linecode=oh_1p_type5 seasons=1 ratings=[400] normamps=400 emergamps=600
new object=line.l_3028_3029 phases=1 bus1=bus3028.1 bus2=bus3029.1 length=317 units=ft linecode=oh_1p_type5 seasons=1 ratings=[400] normamps=400 emergamps=600
new object=line.l_3022_3030 phases=3 bus1=bus3022.1.2.3 bus2=bus3030.1.2.3 length=304 units=ft linecode=oh_3p_type1 seasons=1 ratings=[400] normamps=400 emergamps=600
new object=line.l_3030_3035 phases=3 bus1=bus3030.1.2.3 bus2=bus3035.1.2.3 length=103 units=ft linecode=oh_3p_type1 seasons=1 ratings=[400] normamps=400 emergamps=600
new object=line.l_3035_3036 phases=3 bus1=bus3035.1.2.3 bus2=bus3036.1.2.3 length=271 units=ft linecode=oh_3p_type1 seasons=1 ratings=[400] normamps=400 emergamps=600
new object=line.l_3036_3037 phases=3 bus1=bus3036.1.2.3 bus2=bus3037.1.2.3 length=136 units=ft linecode=oh_3p_type1 seasons=1 ratings=[400] normamps=400 emergamps=600
new object=line.l_3037_3038 phases=3 bus1=bus3037.1.2.3 bus2=bus3038.1.2.3 length=252 units=ft linecode=oh_3p_type1 seasons=1 ratings=[400] normamps=400 emergamps=600
new object=line.l_3038_3039 phases=3 bus1=bus3038.1.2.3 bus2=bus3039.1.2.3 length=235 units=ft linecode=oh_3p_type1 seasons=1 ratings=[400] normamps=400 emergamps=600
new object=line.l_3039_3053 phases=3 bus1=bus3039.1.2.3 bus2=bus3053.1.2.3 length=263 units=ft linecode=oh_3p_type1 seasons=1 ratings=[400] normamps=400 emergamps=600
new object=line.l_3053_3054 phases=3 bus1=bus3053.1.2.3 bus2=bus3054.1.2.3 length=280 units=ft linecode=ug_3p_type2 seasons=1 ratings=[400] normamps=400 emergamps=600
new object=line.l_3053_3055 phases=1 bus1=bus3053.2 bus2=bus3055.2 length=1335 units=ft linecode=ug_1p_type2 seasons=1 ratings=[400] normamps=400 emergamps=600
new object=line.l_3055_3056 phases=1 bus1=bus3055.2 bus2=bus3056.2 length=128 units=ft linecode=ug_1p_type2 seasons=1 ratings=[400] normamps=400 emergamps=600
new object=line.l_3056_3057 phases=1 bus1=bus3056.2 bus2=bus3057.2 length=178 units=ft linecode=ug_1p_type2 seasons=1 ratings=[400] normamps=400 emergamps=600
new object=line.l_3057_3058 phases=1 bus1=bus3057.2 bus2=bus3058.2 length=178 units=ft linecode=ug_1p_type2 seasons=1 ratings=[400] normamps=400 emergamps=600
new object=line.l_3058_3059 phases=1 bus1=bus3058.2 bus2=bus3059.2 length=274 units=ft linecode=ug_1p_type2 seasons=1 ratings=[400] normamps=400 emergamps=600
new object=line.l_3059_3060 phases=1 bus1=bus3059.2 bus2=bus3060.2 length=77 units=ft linecode=ug_1p_type2 seasons=1 ratings=[400] normamps=400 emergamps=600
new object=line.l_3060_3061 phases=1 bus1=bus3060.2 bus2=bus3061.2 length=184 units=ft linecode=ug_1p_type2 seasons=1 ratings=[400] normamps=400 emergamps=600
new object=line.l_3055_3062 phases=1 bus1=bus3055.2 bus2=bus3062.2 length=443 units=ft linecode=ug_1p_type2 seasons=1 ratings=[400] normamps=400 emergamps=600
new object=line.l_3062_3063 phases=1 bus1=bus3062.2 bus2=bus3063.2 length=198 units=ft linecode=ug_1p_type2 seasons=1 ratings=[400] normamps=400 emergamps=600
new object=line.l_3063_3064 phases=1 bus1=bus3063.2 bus2=bus3064.2 length=157 units=ft linecode=ug_1p_type2 seasons=1 ratings=[400] normamps=400 emergamps=600
new object=line.l_3064_3065 phases=1 bus1=bus3064.2 bus2=bus3065.2 length=205 units=ft linecode=ug_1p_type2 seasons=1 ratings=[400] normamps=400 emergamps=600
new object=line.l_3065_3066 phases=1 bus1=bus3065.2 bus2=bus3066.2 length=123 units=ft linecode=ug_1p_type2 seasons=1 ratings=[400] normamps=400 emergamps=600
new object=line.l_3066_3067 phases=1 bus1=bus3066.2 bus2=bus3067.2 length=274 units=ft linecode=ug_1p_type2 seasons=1 ratings=[400] normamps=400 emergamps=600
new object=line.l_3030_3040 phases=3 bus1=bus3030.1.2.3 bus2=bus3040.1.2.3 length=332 units=ft linecode=oh_3p_type1 seasons=1 ratings=[400] normamps=400 emergamps=600
new object=line.l_3040_3044 phases=1 bus1=bus3040.3 bus2=bus3044.3 length=144 units=ft linecode=oh_1p_type5 seasons=1 ratings=[400] normamps=400 emergamps=600
new object=line.l_3044_3045 phases=1 bus1=bus3044.3 bus2=bus3045.3 length=393 units=ft linecode=oh_1p_type5 seasons=1 ratings=[400] normamps=400 emergamps=600
new object=line.l_3040_3041 phases=1 bus1=bus3040.3 bus2=bus3041.3 length=121 units=ft linecode=oh_1p_type5 seasons=1 ratings=[400] normamps=400 emergamps=600
new object=line.l_3041_3042 phases=1 bus1=bus3041.3 bus2=bus3042.3 length=328 units=ft linecode=oh_1p_type5 seasons=1 ratings=[400] normamps=400 emergamps=600
new object=line.l_3042_3043 phases=1 bus1=bus3042.3 bus2=bus3043.3 length=418 units=ft linecode=oh_1p_type5 seasons=1 ratings=[400] normamps=400 emergamps=600
new object=line.l_3040_3046 phases=3 bus1=bus3040.1.2.3 bus2=bus3046.1.2.3 length=329 units=ft linecode=oh_3p_type1 seasons=1 ratings=[400] normamps=400 emergamps=600
new object=line.l_3046_3047 phases=3 bus1=bus3046.1.2.3 bus2=bus3047.1.2.3 length=219 units=ft linecode=oh_3p_type1 seasons=1 ratings=[400] normamps=400 emergamps=600
new object=line.l_3046_3048 phases=3 bus1=bus3046.1.2.3 bus2=bus3048.1.2.3 length=130 units=ft linecode=oh_3p_type1 seasons=1 ratings=[400] normamps=400 emergamps=600
new object=line.l_3048_3049 phases=3 bus1=bus3048.1.2.3 bus2=bus3049.1.2.3 length=226 units=ft linecode=oh_3p_type1 seasons=1 ratings=[400] normamps=400 emergamps=600
new object=line.l_3049_3050 phases=3 bus1=bus3049.1.2.3 bus2=bus3050.1.2.3 length=167 units=ft linecode=oh_3p_type1 seasons=1 ratings=[400] normamps=400 emergamps=600
new object=line.l_3050_3051 phases=3 bus1=bus3050.1.2.3 bus2=bus3051.1.2.3 length=360 units=ft linecode=oh_3p_type1 seasons=1 ratings=[400] normamps=400 emergamps=600
new object=line.l_3051_3052 phases=3 bus1=bus3051.1.2.3 bus2=bus3052.1.2.3 length=292 units=ft linecode=oh_3p_type1 seasons=1 ratings=[400] normamps=400 emergamps=600
new object=line.l_3030_3031 phases=3 bus1=bus3030.1.2.3 bus2=bus3031.1.2.3 length=243 units=ft linecode=oh_3p_type1 seasons=1 ratings=[400] normamps=400 emergamps=600
new object=line.l_3031_3032 phases=3 bus1=bus3031.1.2.3 bus2=bus3032.1.2.3 length=251 units=ft linecode=oh_3p_type1 seasons=1 ratings=[400] normamps=400 emergamps=600
new object=line.l_3032_3033 phases=3 bus1=bus3032.1.2.3 bus2=bus3033.1.2.3 length=388 units=ft linecode=oh_3p_type1 seasons=1 ratings=[400] normamps=400 emergamps=600
new object=line.l_3033_3034 phases=3 bus1=bus3033.1.2.3 bus2=bus3034.1.2.3 length=257 units=ft linecode=oh_3p_type1 seasons=1 ratings=[400] normamps=400 emergamps=600
new object=line.l_3034_3068 phases=3 bus1=bus3034.1.2.3 bus2=bus3068.1.2.3 length=164 units=ft linecode=oh_3p_type1 seasons=1 ratings=[400] normamps=400 emergamps=600
new object=line.l_3068_3069 phases=3 bus1=bus3068.1.2.3 bus2=bus3069.1.2.3 length=329 units=ft linecode=oh_3p_type1 seasons=1 ratings=[400] normamps=400 emergamps=600
new object=line.l_3069_3070 phases=3 bus1=bus3069.1.2.3 bus2=bus3070.1.2.3 length=107 units=ft linecode=ug_3p_type2 seasons=1 ratings=[400] normamps=400 emergamps=600
new object=line.l_3070_3071 phases=3 bus1=bus3070.1.2.3 bus2=bus3071.1.2.3 length=141 units=ft linecode=ug_3p_type2 seasons=1 ratings=[400] normamps=400 emergamps=600
new object=line.l_3071_3072 phases=3 bus1=bus3071.1.2.3 bus2=bus3072.1.2.3 length=90 units=ft linecode=ug_3p_type2 seasons=1 ratings=[400] normamps=400 emergamps=600
new object=line.l_3069_3073 phases=3 bus1=bus3069.1.2.3 bus2=bus3073.1.2.3 length=20 units=ft linecode=oh_3p_type1 seasons=1 ratings=[400] normamps=400 emergamps=600
new object=line.l_3073_3074 phases=3 bus1=bus3073.1.2.3 bus2=bus3074.1.2.3 length=340 units=ft linecode=oh_3p_type1 seasons=1 ratings=[400] normamps=400 emergamps=600
new object=line.l_3068_3075 phases=3 bus1=bus3068.1.2.3 bus2=bus3075.1.2.3 length=188 units=ft linecode=oh_3p_type1 seasons=1 ratings=[400] normamps=400 emergamps=600
new object=line.l_3076_3077 phases=3 bus1=bus3076.1.2.3 bus2=bus3077.1.2.3 length=877 units=ft linecode=oh_3p_type1 seasons=1 ratings=[400] normamps=400 emergamps=600
new object=line.l_3077_3078 phases=3 bus1=bus3077.1.2.3 bus2=bus3078.1.2.3 length=80 units=ft linecode=oh_3p_type1 seasons=1 ratings=[400] normamps=400 emergamps=600
new object=line.l_3076_3079 phases=3 bus1=bus3076.1.2.3 bus2=bus3079.1.2.3 length=191 units=ft linecode=oh_3p_type1 seasons=1 ratings=[400] normamps=400 emergamps=600
new object=line.l_3079_3080 phases=3 bus1=bus3079.1.2.3 bus2=bus3080.1.2.3 length=604 units=ft linecode=oh_3p_type1 seasons=1 ratings=[400] normamps=400 emergamps=600
new object=line.l_3080_3081 phases=3 bus1=bus3080.1.2.3 bus2=bus3081.1.2.3 length=195 units=ft linecode=oh_3p_type1 seasons=1 ratings=[400] normamps=400 emergamps=600
new object=line.l_3080_3082 phases=3 bus1=bus3080.1.2.3 bus2=bus3082.1.2.3 length=540 units=ft linecode=oh_3p_type1 seasons=1 ratings=[400] normamps=400 emergamps=600
new object=line.l_3082_3083 phases=1 bus1=bus3082.1 bus2=bus3083.1 length=125 units=ft linecode=ug_1p_type2 seasons=1 ratings=[400] normamps=400 emergamps=600
new object=line.l_3083_3084 phases=1 bus1=bus3083.1 bus2=bus3084.1 length=196 units=ft linecode=ug_1p_type2 seasons=1 ratings=[400] normamps=400 emergamps=600
new object=line.l_3084_3085 phases=1 bus1=bus3084.1 bus2=bus3085.1 length=515 units=ft linecode=ug_1p_type2 seasons=1 ratings=[400] normamps=400 emergamps=600
new object=line.l_3085_3086 phases=1 bus1=bus3085.1 bus2=bus3086.1 length=338 units=ft linecode=ug_1p_type2 seasons=1 ratings=[400] normamps=400 emergamps=600
new object=line.l_3086_3087 phases=1 bus1=bus3086.1 bus2=bus3087.1 length=239 units=ft linecode=ug_1p_type2 seasons=1 ratings=[400] normamps=400 emergamps=600
new object=line.l_3087_3088 phases=1 bus1=bus3087.1 bus2=bus3088.1 length=420 units=ft linecode=ug_1p_type2 seasons=1 ratings=[400] normamps=400 emergamps=600
new object=line.l_3088_3089 phases=1 bus1=bus3088.1 bus2=bus3089.1 length=112 units=ft linecode=ug_1p_type2 seasons=1 ratings=[400] normamps=400 emergamps=600
new object=line.l_3089_3090 phases=1 bus1=bus3089.1 bus2=bus3090.1 length=565 units=ft linecode=ug_1p_type2 seasons=1 ratings=[400] normamps=400 emergamps=600
new object=line.l_3090_3091 phases=1 bus1=bus3090.1 bus2=bus3091.1 length=222 units=ft linecode=ug_1p_type2 seasons=1 ratings=[400] normamps=400 emergamps=600
new object=line.l_3082_3092 phases=3 bus1=bus3082.1.2.3 bus2=bus3092.1.2.3 length=185 units=ft linecode=ug_3p_type2 seasons=1 ratings=[400] normamps=400 emergamps=600
new object=line.l_3092_3093 phases=1 bus1=bus3092.1 bus2=bus3093.1 length=230 units=ft linecode=ug_1p_type2 seasons=1 ratings=[400] normamps=400 emergamps=600
new object=line.l_3093_3094 phases=1 bus1=bus3093.1 bus2=bus3094.1 length=125 units=ft linecode=ug_1p_type2 seasons=1 ratings=[400] normamps=400 emergamps=600
new object=line.l_3094_3095 phases=1 bus1=bus3094.1 bus2=bus3095.1 length=65 units=ft linecode=ug_1p_type2 seasons=1 ratings=[400] normamps=400 emergamps=600
new object=line.l_3095_3096 phases=1 bus1=bus3095.1 bus2=bus3096.1 length=296 units=ft linecode=ug_1p_type2 seasons=1 ratings=[400] normamps=400 emergamps=600
new object=line.l_3096_3097 phases=1 bus1=bus3096.1 bus2=bus3097.1 length=117 units=ft linecode=ug_1p_type2 seasons=1 ratings=[400] normamps=400 emergamps=600
new object=line.l_3092_3098 phases=1 bus1=bus3092.2 bus2=bus3098.2 length=284 units=ft linecode=ug_1p_type2 seasons=1 ratings=[400] normamps=400 emergamps=600
new object=line.l_3098_3099 phases=1 bus1=bus3098.2 bus2=bus3099.2 length=368 units=ft linecode=ug_1p_type2 seasons=1 ratings=[400] normamps=400 emergamps=600
new object=line.l_3092_3100 phases=3 bus1=bus3092.1.2.3 bus2=bus3100.1.2.3 length=91 units=ft linecode=ug_3p_type2 seasons=1 ratings=[400] normamps=400 emergamps=600
new object=line.l_3100_3101 phases=1 bus1=bus3100.3 bus2=bus3101.3 length=157 units=ft linecode=ug_1p_type2 seasons=1 ratings=[400] normamps=400 emergamps=600
new object=line.l_3101_3102 phases=1 bus1=bus3101.3 bus2=bus3102.3 length=225 units=ft linecode=ug_1p_type2 seasons=1 ratings=[400] normamps=400 emergamps=600
new object=line.l_3102_3103 phases=1 bus1=bus3102.3 bus2=bus3103.3 length=134 units=ft linecode=ug_1p_type2 seasons=1 ratings=[400] normamps=400 emergamps=600
new object=line.l_3100_3104 phases=1 bus1=bus3100.3 bus2=bus3104.3 length=223 units=ft linecode=ug_1p_type2 seasons=1 ratings=[400] normamps=400 emergamps=600
new object=line.l_3104_3105 phases=1 bus1=bus3104.3 bus2=bus3105.3 length=120 units=ft linecode=ug_1p_type2 seasons=1 ratings=[400] normamps=400 emergamps=600
new object=line.l_3105_3106 phases=1 bus1=bus3105.3 bus2=bus3106.3 length=181 units=ft linecode=ug_1p_type2 seasons=1 ratings=[400] normamps=400 emergamps=600
new object=line.l_3082_3107 phases=3 bus1=bus3082.1.2.3 bus2=bus3107.1.2.3 length=1461 units=ft linecode=ug_3p_type1 seasons=1 ratings=[400] normamps=400 emergamps=600
new object=line.l_3107_3108 phases=1 bus1=bus3107.1 bus2=bus3108.1 length=466 units=ft linecode=ug_1p_type2 seasons=1 ratings=[400] normamps=400 emergamps=600
new object=line.l_3108_3109 phases=1 bus1=bus3108.1 bus2=bus3109.1 length=136 units=ft linecode=ug_1p_type2 seasons=1 ratings=[400] normamps=400 emergamps=600
new object=line.l_3109_3110 phases=1 bus1=bus3109.1 bus2=bus3110.1 length=152 units=ft linecode=ug_1p_type2 seasons=1 ratings=[400] normamps=400 emergamps=600
new object=line.l_3110_3111 phases=1 bus1=bus3110.1 bus2=bus3111.1 length=276 units=ft linecode=ug_1p_type2 seasons=1 ratings=[400] normamps=400 emergamps=600
new object=line.l_3111_3112 phases=1 bus1=bus3111.1 bus2=bus3112.1 length=328 units=ft linecode=ug_1p_type2 seasons=1 ratings=[400] normamps=400 emergamps=600
new object=line.l_3107_3113 phases=1 bus1=bus3107.2 bus2=bus3113.2 length=245 units=ft linecode=ug_1p_type2 seasons=1 ratings=[400] normamps=400 emergamps=600
new object=line.l_3113_3114 phases=1 bus1=bus3113.2 bus2=bus3114.2 length=149 units=ft linecode=ug_1p_type2 seasons=1 ratings=[400] normamps=400 emergamps=600
new object=line.l_3114_3115 phases=1 bus1=bus3114.2 bus2=bus3115.2 length=331 units=ft linecode=ug_1p_type2 seasons=1 ratings=[400] normamps=400 emergamps=600
new object=line.l_3113_3116 phases=1 bus1=bus3113.2 bus2=bus3116.2 length=456 units=ft linecode=ug_1p_type2 seasons=1 ratings=[400] normamps=400 emergamps=600
new object=line.l_3116_3117 phases=1 bus1=bus3116.2 bus2=bus3117.2 length=112 units=ft linecode=ug_1p_type2 seasons=1 ratings=[400] normamps=400 emergamps=600
new object=line.l_3107_3118 phases=3 bus1=bus3107.1.2.3 bus2=bus3118.1.2.3 length=2267 units=ft linecode=ug_3p_type1 seasons=1 ratings=[400] normamps=400 emergamps=600
new object=line.l_3118_3119 phases=1 bus1=bus3118.2 bus2=bus3119.2 length=464 units=ft linecode=ug_1p_type2 seasons=1 ratings=[400] normamps=400 emergamps=600
new object=line.l_3119_3120 phases=1 bus1=bus3119.2 bus2=bus3120.2 length=350 units=ft linecode=ug_1p_type2 seasons=1 ratings=[400] normamps=400 emergamps=600
new object=line.l_3120_3121 phases=1 bus1=bus3120.2 bus2=bus3121.2 length=206 units=ft linecode=ug_1p_type2 seasons=1 ratings=[400] normamps=400 emergamps=600
new object=line.l_3121_3122 phases=1 bus1=bus3121.2 bus2=bus3122.2 length=177 units=ft linecode=ug_1p_type2 seasons=1 ratings=[400] normamps=400 emergamps=600
new object=line.l_3119_3123 phases=1 bus1=bus3119.2 bus2=bus3123.2 length=91 units=ft linecode=ug_1p_type2 seasons=1 ratings=[400] normamps=400 emergamps=600
new object=line.l_3123_3124 phases=1 bus1=bus3123.2 bus2=bus3124.2 length=67 units=ft linecode=ug_1p_type2 seasons=1 ratings=[400] normamps=400 emergamps=600
new object=line.l_3124_3125 phases=1 bus1=bus3124.2 bus2=bus3125.2 length=151 units=ft linecode=ug_1p_type2 seasons=1 ratings=[400] normamps=400 emergamps=600
new object=line.l_3125_3126 phases=1 bus1=bus3125.2 bus2=bus3126.2 length=343 units=ft linecode=ug_1p_type2 seasons=1 ratings=[400] normamps=400 emergamps=600
new object=line.l_3126_3127 phases=1 bus1=bus3126.2 bus2=bus3127.2 length=234 units=ft linecode=ug_1p_type2 seasons=1 ratings=[400] normamps=400 emergamps=600
new object=line.l_3127_3128 phases=1 bus1=bus3127.2 bus2=bus3128.2 length=238 units=ft linecode=ug_1p_type2 seasons=1 ratings=[400] normamps=400 emergamps=600
new object=line.l_3128_3129 phases=1 bus1=bus3128.2 bus2=bus3129.2 length=243 units=ft linecode=ug_1p_type2 seasons=1 ratings=[400] normamps=400 emergamps=600
new object=line.l_3129_3130 phases=1 bus1=bus3129.2 bus2=bus3130.2 length=230 units=ft linecode=ug_1p_type2 seasons=1 ratings=[400] normamps=400 emergamps=600
new object=line.l_3130_3131 phases=1 bus1=bus3130.2 bus2=bus3131.2 length=194 units=ft linecode=ug_1p_type2 seasons=1 ratings=[400] normamps=400 emergamps=600
...
new object=load.load_1003 phases=3 conn=wye bus1=bus1003.1.2.3.0 kv=13.8 kw=15.672249999999998 kvar=3.83203521636453
new object=load.load_1004 phases=3 conn=wye bus1=bus1004.1.2.3.0 kv=13.8 kw=7.064299999999999 kvar=3.33794794654248
new object=load.load_1005 phases=3 conn=wye bus1=bus1005.1.2.3.0 kv=13.8 kw=5.0389 kvar=1.94292752188577
new object=load.load_1006 phases=1 conn=delta bus1=bus1006.1.2 kv=13.8 kw=5.1659999999999995 kvar=2.29629183968801
new object=load.load_1007 phases=1 conn=delta bus1=bus1007.1.2 kv=13.8 kw=4.267075 kvar=2.01623292243998
new object=load.load_1008 phases=3 conn=wye bus1=bus1008.1.2.3.0 kv=13.8 kw=14.4484 kvar=6.42232733576234
new object=load.load_1009 phases=3 conn=wye bus1=bus1009.1.2.3.0 kv=13.8 kw=17.508024999999996 kvar=6.75084316544566
new object=load.load_1010 phases=3 conn=wye bus1=bus1010.1.2.3.0 kv=13.8 kw=7.314399999999999 kvar=2.82032766399041
new object=load.load_1011 phases=1 conn=wye bus1=bus1011.1.0 kv=7.9677 kw=3.2031249999999996 kvar=1.02713782868395
new object=load.load_1012 phases=1 conn=wye bus1=bus1012.2.0 kv=7.9677 kw=3.160075 kvar=1.11897958005877
new object=load.load_1013 phases=3 conn=wye bus1=bus1013.1.2.3.0 kv=13.8 kw=1.5754249999999999 kvar=0.448291666666667
new object=load.load_1014 phases=1 conn=wye bus1=bus1014.2.0 kv=7.9677 kw=0.46945 kvar=0.195107182990382
new object=load.load_1015 phases=1 conn=wye bus1=bus1015.2.0 kv=7.9677 kw=0.812825 kvar=0.161025517882765
new object=load.load_1016 phases=1 conn=wye bus1=bus1016.3.0 kv=7.9677 kw=3.160075 kvar=1.4931650492151
new object=load.load_1017 phases=1 conn=wye bus1=bus1017.3.0 kv=7.9677 kw=2.1842749999999995 kvar=0.621541666666667
new object=load.load_2002 phases=3 conn=wye bus1=bus2002.1.2.3 kv=13.8 kw=28.6385 kvar=10.140865866637
new object=load.load_2003 phases=3 conn=wye bus1=bus2003.1.2.3.0 kv=13.8 kw=14.643149999999999 kvar=3.58040909751365
new object=load.load_2005 phases=3 conn=wye bus1=bus2005.1.2.3.0 kv=13.8 kw=9.170675 kvar=3.5360806627974
new object=load.load_2008 phases=1 conn=wye bus1=bus2008.1.0 kv=7.9677 kw=2.118675 kvar=0.941753022348238
new object=load.load_2009 phases=1 conn=wye bus1=bus2009.1.0 kv=7.9677 kw=1.2771499999999998 kvar=0.492450710388461
new object=load.load_2010 phases=3 conn=wye bus1=bus2010.1.2.3.0 kv=13.8 kw=2.34725 kvar=0.905065912351184
new object=load.load_2011 phases=3 conn=wye bus1=bus2011.1.2.3.0 kv=13.8 kw=5.5022 kvar=1.76437627660014
new object=load.load_2014 phases=1 conn=wye bus1=bus2014.2.0 kv=7.9677 kw=2.8863999999999996 kvar=0.821333333333334
new object=load.load_2015 phases=1 conn=wye bus1=bus2015.2.0 kv=7.9677 kw=1.5272499999999998 kvar=0.634737342042945
new object=load.load_2016 phases=1 conn=wye bus1=bus2016.2.0 kv=7.9677 kw=1.6809999999999998 kvar=0.333016203439767
new object=load.load_2017 phases=1 conn=wye bus1=bus2017.2.0 kv=7.9677 kw=5.253125 kvar=2.48215078729399
new object=load.load_2018 phases=1 conn=wye bus1=bus2018.2.0 kv=7.9677 kw=2.879225 kvar=0.819291666666667
new object=load.load_2020 phases=1 conn=wye bus1=bus2020.2.0 kv=7.9677 kw=3.1631499999999995 kvar=1.01431914858197
new object=load.load_2022 phases=1 conn=wye bus1=bus2022.3.0 kv=7.9677 kw=2.7962 kvar=1.24291351957716
new object=load.load_2023 phases=1 conn=wye bus1=bus2023.3.0 kv=7.9677 kw=0.7461999999999999 kvar=0.147826704941555
new object=load.load_2024 phases=1 conn=wye bus1=bus2024.3.0 kv=7.9677 kw=2.6127249999999997 kvar=0.363212828405741
new object=load.load_2025 phases=1 conn=wye bus1=bus2025.3.0 kv=7.9677 kw=2.768525 kvar=1.06750350622731
new object=load.load_2028 phases=1 conn=wye bus1=bus2028.1.0 kv=7.9677 kw=0.0 kvar=0.0
new object=load.load_2029 phases=3 conn=wye bus1=bus2029.1.2.3.0 kv=13.8 kw=9.662674999999998 kvar=1.91423399379676
new object=load.load_2030 phases=3 conn=wye bus1=bus2030.1.2.3.0 kv=13.8 kw=5.464275 kvar=2.58192114089059
new object=load.load_2031 phases=1 conn=wye bus1=bus2031.1.0 kv=7.9677 kw=3.360975 kvar=1.58809218176332
new object=load.load_2032 phases=3 conn=wye bus1=bus2032.1.2.3.0 kv=13.8 kw=2.2724249999999997 kvar=1.01009504138657
new object=load.load_2034 phases=3 conn=wye bus1=bus2034.1.2.3.0 kv=13.8 kw=3.7115249999999995 kvar=1.75373034161786
new object=load.load_2035 phases=3 conn=wye bus1=bus2035.1.2.3.0 kv=13.8 kw=4.029274999999999 kvar=1.42676248109342
new object=load.load_2037 phases=3 conn=wye bus1=bus2037.1.2.3.0 kv=13.8 kw=4.039524999999999 kvar=1.2953440585099
new object=load.load_2040 phases=3 conn=wye bus1=bus2040.1.2.3.0 kv=13.8 kw=83.804 kvar=23.8466666666667
new object=load.load_2041 phases=3 conn=wye bus1=bus2041.1.2.3.0 kv=13.8 kw=1.966975 kvar=0.389669569756654
new object=load.load_2042 phases=3 conn=wye bus1=bus2042.1.2.3.0 kv=13.8 kw=4.328575 kvar=2.04529224873025
new object=load.load_2043 phases=3 conn=wye bus1=bus2043.1.2.3.0 kv=13.8 kw=6.6717249999999995 kvar=1.63130917091673
new object=load.load_2045 phases=1 conn=wye bus1=bus2045.2.0 kv=7.9677 kw=2.2293749999999997 kvar=0.545106382968794
new object=load.load_2046 phases=1 conn=wye bus1=bus2046.2.0 kv=7.9677 kw=6.786525 kvar=2.82053418903781
new object=load.load_2047 phases=1 conn=wye bus1=bus2047.2.0 kv=7.9677 kw=5.649799999999999 kvar=1.38143741743632
new object=load.load_2048 phases=1 conn=wye bus1=bus2048.2.0 kv=7.9677 kw=3.8580999999999994 kvar=1.71492906440192
new object=load.load_2049 phases=1 conn=wye bus1=bus2049.3.0 kv=7.9677 kw=3.6264499999999993 kvar=1.28412252813751
new object=load.load_2050 phases=1 conn=wye bus1=bus2050.3.0 kv=7.9677 kw=3.8406749999999996 kvar=0.533918582987961
new object=load.load_2051 phases=1 conn=wye bus1=bus2051.3.0 kv=7.9677 kw=5.922449999999999 kvar=2.46141769283499
new object=load.load_2052 phases=3 conn=wye bus1=bus2052.1.2.3.0 kv=13.8 kw=41.029725 kvar=17.0522825937161
new object=load.load_2053 phases=3 conn=wye bus1=bus2053.1.2.3.0 kv=13.8 kw=4.387 kvar=1.95002560989379
new object=load.load_2054 phases=1 conn=wye bus1=bus2054.1.0 kv=7.9677 kw=7.337974999999999 kvar=3.46726194853419
new object=load.load_2055 phases=1 conn=wye bus1=bus2055.1.0 kv=7.9677 kw=4.366499999999999 kvar=1.2425
new object=load.load_2056 phases=1 conn=wye bus1=bus2056.1.0 kv=7.9677 kw=4.841074999999999 kvar=2.01198957481129
new object=load.load_2058 phases=3 conn=wye bus1=bus2058.1.2.3.0 kv=13.8 kw=32.266999999999996 kvar=11.425714297843
new object=load.load_2059 phases=1 conn=wye bus1=bus2059.2.0 kv=7.9677 kw=2.7008749999999995 kvar=1.27618874624774
new object=load.load_2060 phases=1 conn=wye bus1=bus2060.2.0 kv=7.9677 kw=1.9946499999999998 kvar=0.639619268678067
new object=load.load_3002 phases=3 conn=wye bus1=bus3002.1.2.3.0 kv=13.8 kw=20.136124999999996 kvar=7.13018289
new object=load.load_3004 phases=3 conn=wye bus1=bus3004.1.2.3.0 kv=13.8 kw=3.1949249999999996 kvar=1.509632001
new object=load.load_3006 phases=3 conn=wye bus1=bus3006.1.2.3.0 kv=13.8 kw=4.133825 kvar=1.837489085
new object=load.load_3007 phases=3 conn=wye bus1=bus3007.1.2.3.0 kv=13.8 kw=9.660625 kvar=4.564735838
new object=load.load_3009 phases=1 conn=wye bus1=bus3009.1.0 kv=7.9677 kw=4.1655999999999995 kvar=1.606195575
new object=load.load_3010 phases=1 conn=wye bus1=bus3010.1.0 kv=7.9677 kw=5.058374999999999 kvar=1.950436802
new object=load.load_3011 phases=1 conn=wye bus1=bus3011.1.0 kv=7.9677 kw=7.604474999999999 kvar=2.438507376
new object=load.load_3012 phases=1 conn=wye bus1=bus3012.1.0 kv=7.9677 kw=3.8570749999999996 kvar=1.365786623
new object=load.load_3013 phases=1 conn=wye bus1=bus3013.2.0 kv=7.9677 kw=2.602475 kvar=0.740541667
new object=load.load_3014 phases=1 conn=wye bus1=bus3014.2.0 kv=7.9677 kw=3.182625 kvar=1.322724461
new object=load.load_3016 phases=1 conn=wye bus1=bus3016.2.0 kv=7.9677 kw=6.40215 kvar=3.025075867
new object=load.load_3017 phases=1 conn=wye bus1=bus3017.2.0 kv=7.9677 kw=8.705325 kvar=2.477125
new object=load.load_3018 phases=1 conn=wye bus1=bus3018.3.0 kv=7.9677 kw=5.484774999999999 kvar=1.94215366
new object=load.load_3019 phases=1 conn=wye bus1=bus3019.3.0 kv=7.9677 kw=5.538074999999999 kvar=1.77588022
new object=load.load_3020 phases=1 conn=wye bus1=bus3020.3.0 kv=7.9677 kw=6.1335999999999995 kvar=2.726390946
new object=load.load_3021 phases=1 conn=wye bus1=bus3021.3.0 kv=7.9677 kw=7.9232499999999995 kvar=3.521892048
new object=load.load_3023 phases=1 conn=wye bus1=bus3023.1.0 kv=7.9677 kw=4.4526 kvar=0.618986476
new object=load.load_3024 phases=1 conn=wye bus1=bus3024.1.0 kv=7.9677 kw=5.145499999999999 kvar=1.984030952
new object=load.load_3025 phases=1 conn=wye bus1=bus3025.1.0 kv=7.9677 kw=6.70965 kvar=1.90925
new object=load.load_3026 phases=1 conn=wye bus1=bus3026.1.0 kv=7.9677 kw=10.529824999999999 kvar=2.086021621
new object=load.load_3027 phases=1 conn=wye bus1=bus3027.1.0 kv=7.9677 kw=7.293899999999999 kvar=1.444965429
new object=load.load_3028 phases=1 conn=wye bus1=bus3028.1.0 kv=7.9677 kw=11.283199999999997 kvar=5.33141773
new object=load.load_3029 phases=1 conn=wye bus1=bus3029.1.0 kv=7.9677 kw=2.55635 kvar=1.207899329
new object=load.load_3031 phases=3 conn=wye bus1=bus3031.1.2.3.0 kv=13.8 kw=4.377775 kvar=0.86726354
new object=load.load_3032 phases=3 conn=wye bus1=bus3032.1.2.3.0 kv=13.8 kw=5.851724999999999 kvar=2.764994897
new object=load.load_3033 phases=3 conn=wye bus1=bus3033.1.2.3.0 kv=13.8 kw=10.023475 kvar=3.549303053
new object=load.load_3034 phases=3 conn=wye bus1=bus3034.1.2.3.0 kv=13.8 kw=4.8953999999999995 kvar=0.680543142
new object=load.load_3035 phases=3 conn=wye bus1=bus3035.1.2.3.0 kv=13.8 kw=11.165325 kvar=3.580355958
new object=load.load_3036 phases=3 conn=wye bus1=bus3036.1.2.3.0 kv=13.8 kw=4.12665 kvar=1.17425
new object=load.load_3037 phases=3 conn=wye bus1=bus3037.1.2.3.0 kv=13.8 kw=7.485574999999999 kvar=2.886330287
new object=load.load_3038 phases=3 conn=wye bus1=bus3038.1.2.3.0 kv=13.8 kw=6.28325 kvar=1.787916667
new object=load.load_3039 phases=3 conn=wye bus1=bus3039.1.2.3.0 kv=13.8 kw=5.0901499999999995 kvar=1.008389309
new object=load.load_3041 phases=1 conn=wye bus1=bus3041.3.0 kv=7.9677 kw=5.383299999999999 kvar=1.316275275
new object=load.load_3042 phases=1 conn=wye bus1=bus3042.3.0 kv=7.9677 kw=7.911975 kvar=1.09989793
new object=load.load_3043 phases=1 conn=wye bus1=bus3043.3.0 kv=7.9677 kw=7.027399999999999 kvar=1.718275569
new object=load.load_3044 phases=1 conn=wye bus1=bus3044.3.0 kv=7.9677 kw=4.221975 kvar=1.754686652
new object=load.load_3045 phases=1 conn=wye bus1=bus3045.3.0 kv=7.9677 kw=4.544849999999999 kvar=1.11126515
new object=load.load_3047 phases=3 conn=wye bus1=bus3047.1.2.3.0 kv=13.8 kw=10.468324999999998 kvar=3.706824019
new object=load.load_3048 phases=3 conn=wye bus1=bus3048.1.2.3.0 kv=13.8 kw=2.9396999999999998 kvar=0.408667867
new object=load.load_3049 phases=3 conn=wye bus1=bus3049.1.2.3.0 kv=13.8 kw=1.712775 kvar=0.711843019
new object=load.load_3050 phases=3 conn=wye bus1=bus3050.1.2.3.0 kv=13.8 kw=2.71215 kvar=1.12719128
new object=load.load_3051 phases=3 conn=wye bus1=bus3051.1.2.3.0 kv=13.8 kw=2.4722999999999997 kvar=1.098939666
new object=load.load_3052 phases=3 conn=wye bus1=bus3052.1.2.3.0 kv=13.8 kw=6.253525 kvar=2.954849162
new object=load.load_3054 phases=3 conn=wye bus1=bus3054.1.2.3.0 kv=13.8 kw=2.532775 kvar=1.052641592
new object=load.load_3056 phases=1 conn=wye bus1=bus3056.2.0 kv=7.9677 kw=3.8908999999999994 kvar=1.377764024
new object=load.load_3057 phases=1 conn=wye bus1=bus3057.2.0 kv=7.9677 kw=3.7709749999999995 kvar=1.781821024
new object=load.load_3058 phases=1 conn=wye bus1=bus3058.2.0 kv=7.9677 kw=3.5618749999999997 kvar=1.142177265
new object=load.load_3059 phases=1 conn=wye bus1=bus3059.2.0 kv=7.9677 kw=4.475149999999999 kvar=1.989208367
new object=load.load_3060 phases=1 conn=wye bus1=bus3060.2.0 kv=7.9677 kw=3.72075 kvar=1.193123302
new object=load.load_3061 phases=1 conn=wye bus1=bus3061.2.0 kv=7.9677 kw=1.3150749999999998 kvar=0.374208333
new object=load.load_3062 phases=1 conn=wye bus1=bus3062.2.0 kv=7.9677 kw=0.952225 kvar=0.423264905
new object=load.load_3063 phases=1 conn=wye bus1=bus3063.2.0 kv=7.9677 kw=6.686074999999999 kvar=2.367532858
new object=load.load_3064 phases=1 conn=wye bus1=bus3064.2.0 kv=7.9677 kw=7.986799999999999 kvar=2.272666667
new object=load.load_3065 phases=1 conn=wye bus1=bus3065.2.0 kv=7.9677 kw=2.883325 kvar=1.020982666
new object=load.load_3066 phases=1 conn=wye bus1=bus3066.2.0 kv=7.9677 kw=3.338425 kvar=1.577437095
new object=load.load_3067 phases=1 conn=wye bus1=bus3067.2.0 kv=7.9677 kw=6.359099999999999 kvar=2.039156189
new object=load.load_3070 phases=3 conn=wye bus1=bus3070.1.2.3.0 kv=13.8 kw=0.8661249999999999 kvar=0.120405979
new object=load.load_3071 phases=3 conn=wye bus1=bus3071.1.2.3.0 kv=13.8 kw=2.2170749999999995 kvar=0.71094372
new object=load.load_3072 phases=3 conn=wye bus1=bus3072.1.2.3.0 kv=13.8 kw=2.0130999999999997 kvar=0.279854843
new object=load.load_3073 phases=3 conn=wye bus1=bus3073.1.2.3.0 kv=13.8 kw=2.354425 kvar=1.046544118
new object=load.load_3074 phases=3 conn=wye bus1=bus3074.1.2.3.0 kv=13.8 kw=4.910775 kvar=2.182844088
new object=load.load_3077 phases=3 conn=wye bus1=bus3077.1.2.3.0 kv=13.8 kw=42.06292499999999 kvar=16.21886019
new object=load.load_3078 phases=3 conn=wye bus1=bus3078.1.2.3.0 kv=13.8 kw=4.112299999999999 kvar=1.827921203
new object=load.load_3081 phases=3 conn=wye bus1=bus3081.1.2.3.0 kv=13.8 kw=1.6205249999999998 kvar=0.39623595
new object=load.load_3083 phases=1 conn=wye bus1=bus3083.1.0 kv=7.9677 kw=3.9267749999999997 kvar=0.777917729
new object=load.load_3084 phases=1 conn=wye bus1=bus3084.1.0 kv=7.9677 kw=2.30625 kvar=0.65625
new object=load.load_3085 phases=1 conn=wye bus1=bus3085.1.0 kv=7.9677 kw=6.934124999999999 kvar=1.695468819
new object=load.load_3086 phases=1 conn=wye bus1=bus3086.1.0 kv=7.9677 kw=2.40875 kvar=0.92877943
new object=load.load_3087 phases=1 conn=wye bus1=bus3087.1.0 kv=7.9677 kw=4.203525 kvar=1.747018684
new object=load.load_3088 phases=1 conn=wye bus1=bus3088.1.0 kv=7.9677 kw=8.620249999999999 kvar=1.707723336
new object=load.load_3089 phases=1 conn=wye bus1=bus3089.1.0 kv=7.9677 kw=0.8568999999999999 kvar=0.303427483
new object=load.load_3090 phases=1 conn=wye bus1=bus3090.1.0 kv=7.9677 kw=3.3169 kvar=0.461105027
new object=load.load_3091 phases=1 conn=wye bus1=bus3091.1.0 kv=7.9677 kw=2.5993999999999997 kvar=0.739666667
new object=load.load_3093 phases=1 conn=wye bus1=bus3093.1.0 kv=7.9677 kw=4.3706 kvar=1.942735795
new object=load.load_3094 phases=1 conn=wye bus1=bus3094.1.0 kv=7.9677 kw=3.198 kvar=0.444575922
new object=load.load_3095 phases=1 conn=wye bus1=bus3095.1.0 kv=7.9677 kw=6.048525 kvar=2.141777004
new object=load.load_3096 phases=1 conn=wye bus1=bus3096.1.0 kv=7.9677 kw=2.9130499999999997 kvar=0.934120227
new object=load.load_3097 phases=1 conn=wye bus1=bus3097.1.0 kv=7.9677 kw=11.3775 kvar=4.02876203
new object=load.load_3098 phases=1 conn=wye bus1=bus3098.2.0 kv=7.9677 kw=6.6225249999999996 kvar=2.752374474
new object=load.load_3099 phases=1 conn=wye bus1=bus3099.2.0 kv=7.9677 kw=4.5346 kvar=0.630385858
new object=load.load_3101 phases=1 conn=wye bus1=bus3101.3.0 kv=7.9677 kw=2.446675 kvar=1.156076864
new object=load.load_3102 phases=1 conn=wye bus1=bus3102.3.0 kv=7.9677 kw=8.405 kvar=2.391666667
new object=load.load_3103 phases=1 conn=wye bus1=bus3103.3.0 kv=7.9677 kw=6.885949999999999 kvar=2.655123493
new object=load.load_3104 phases=1 conn=wye bus1=bus3104.3.0 kv=7.9677 kw=8.94825 kvar=2.869412238
new object=load.load_3105 phases=1 conn=wye bus1=bus3105.3.0 kv=7.9677 kw=3.1283 kvar=0.619735032
new object=load.load_3106 phases=1 conn=wye bus1=bus3106.3.0 kv=7.9677 kw=10.060374999999999 kvar=3.879136214
new object=load.load_3108 phases=1 conn=wye bus1=bus3108.1.0 kv=7.9677 kw=2.2293749999999997 kvar=0.634375
new object=load.load_3109 phases=1 conn=wye bus1=bus3109.1.0 kv=7.9677 kw=14.152175 kvar=6.687035301
new object=load.load_3110 phases=1 conn=wye bus1=bus3110.1.0 kv=7.9677 kw=9.816424999999999 kvar=1.364648591
new object=load.load_3111 phases=1 conn=wye bus1=bus3111.1.0 kv=7.9677 kw=9.972224999999998 kvar=2.837625
new object=load.load_3112 phases=1 conn=wye bus1=bus3112.1.0 kv=7.9677 kw=9.572474999999999 kvar=1.330735427
new object=load.load_3114 phases=1 conn=wye bus1=bus3114.2.0 kv=7.9677 kw=5.291049999999999 kvar=2.351876682
new object=load.load_3115 phases=1 conn=wye bus1=bus3115.2.0 kv=7.9677 kw=7.9888499999999985 kvar=1.110584851
new object=load.load_3116 phases=1 conn=wye bus1=bus3116.2.0 kv=7.9677 kw=7.5204249999999995 kvar=2.139958333
new object=load.load_3117 phases=1 conn=wye bus1=bus3117.2.0 kv=7.9677 kw=3.7802 kvar=1.786179923
new object=load.load_3120 phases=1 conn=wye bus1=bus3120.2.0 kv=7.9677 kw=3.2892249999999996 kvar=0.457257735
new object=load.load_3121 phases=1 conn=wye bus1=bus3121.2.0 kv=7.9677 kw=2.916125 kvar=0.713024211
new object=load.load_3122 phases=1 conn=wye bus1=bus3122.2.0 kv=7.9677 kw=4.3142249999999995 kvar=1.917677054
new object=load.load_3123 phases=1 conn=wye bus1=bus3123.2.0 kv=7.9677 kw=5.203925 kvar=2.458903326
new object=load.load_3124 phases=1 conn=wye bus1=bus3124.2.0 kv=7.9677 kw=3.3425249999999997 kvar=1.579374384
new object=load.load_3125 phases=1 conn=wye bus1=bus3125.2.0 kv=7.9677 kw=0.7789999999999999 kvar=0.3680848
new object=load.load_3126 phases=1 conn=wye bus1=bus3126.2.0 kv=7.9677 kw=6.405224999999999 kvar=2.662062853
new object=load.load_3127 phases=1 conn=wye bus1=bus3127.2.0 kv=7.9677 kw=6.3058 kvar=1.24921688
new object=load.load_3128 phases=1 conn=wye bus1=bus3128.2.0 kv=7.9677 kw=3.7802 kvar=1.21218698
new object=load.load_3129 phases=1 conn=wye bus1=bus3129.2.0 kv=7.9677 kw=2.016175 kvar=0.646521635
new object=load.load_3130 phases=1 conn=wye bus1=bus3130.2.0 kv=7.9677 kw=3.7484249999999997 kvar=0.742585522
new object=load.load_3131 phases=1 conn=wye bus1=bus3131.2.0 kv=7.9677 kw=3.6449 kvar=1.620161465
new object=load.load_3132 phases=1 conn=wye bus1=bus3132.1.0 kv=7.9677 kw=11.849 kvar=4.924539379
new object=load.load_3134 phases=1 conn=wye bus1=bus3134.1.0 kv=7.9677 kw=6.101825 kvar=0.848256558
new object=load.load_3135 phases=1 conn=wye bus1=bus3135.1.0 kv=7.9677 kw=7.180124999999999 kvar=2.302432157
new object=load.load_3136 phases=1 conn=wye bus1=bus3136.1.0 kv=7.9677 kw=9.679075 kvar=4.573453636
new object=load.load_3137 phases=1 conn=wye bus1=bus3137.1.0 kv=7.9677 kw=14.102974999999999 kvar=2.793884112
new object=load.load_3138 phases=1 conn=wye bus1=bus3138.1.0 kv=7.9677 kw=8.73505 kvar=3.630356798
new object=load.load_3139 phases=1 conn=wye bus1=bus3139.1.0 kv=7.9677 kw=0.0 kvar=0.0
new object=load.load_3141 phases=1 conn=wye bus1=bus3141.3.0 kv=7.9677 kw=5.037875 kvar=0.998033317
new object=load.load_3142 phases=1 conn=wye bus1=bus3142.3.0 kv=7.9677 kw=4.117425 kvar=1.006755099
new object=load.load_3143 phases=1 conn=wye bus1=bus3143.3.0 kv=7.9677 kw=7.908899999999999 kvar=2.536126556
new object=load.load_3144 phases=1 conn=wye bus1=bus3144.3.0 kv=7.9677 kw=0.49404999999999993 kvar=0.219605688
new object=load.load_3145 phases=1 conn=wye bus1=bus3145.3.0 kv=7.9677 kw=1.82655 kvar=0.863061991
new object=load.load_3146 phases=1 conn=wye bus1=bus3146.3.0 kv=7.9677 kw=1.6563999999999999 kvar=0.736271352
new object=load.load_3147 phases=1 conn=wye bus1=bus3147.3.0 kv=7.9677 kw=8.5321 kvar=4.031497201
new object=load.load_3148 phases=1 conn=wye bus1=bus3148.3.0 kv=7.9677 kw=10.236675 kvar=4.550211628
new object=load.load_3149 phases=1 conn=wye bus1=bus3149.3.0 kv=7.9677 kw=2.079725 kvar=0.864350381
new object=load.load_3150 phases=1 conn=wye bus1=bus3150.3.0 kv=7.9677 kw=2.6670499999999997 kvar=0.652122671
new object=load.load_3151 phases=1 conn=wye bus1=bus3151.3.0 kv=7.9677 kw=1.7281499999999999 kvar=0.554161401
new object=load.load_3152 phases=1 conn=wye bus1=bus3152.3.0 kv=7.9677 kw=1.9823499999999998 kvar=0.936678951
new object=load.load_3153 phases=1 conn=wye bus1=bus3153.3.0 kv=7.9677 kw=6.125399999999999 kvar=2.894308899
new object=load.load_3154 phases=1 conn=wye bus1=bus3154.3.0 kv=7.9677 kw=4.9569 kvar=0.689092679
new object=load.load_3155 phases=1 conn=wye bus1=bus3155.3.0 kv=7.9677 kw=1.513925 kvar=0.485466423
new object=load.load_3157 phases=1 conn=wye bus1=bus3157.3.0 kv=7.9677 kw=9.9835 kvar=4.149222625
new object=load.load_3158 phases=1 conn=wye bus1=bus3158.3.0 kv=7.9677 kw=6.679925 kvar=1.63331416
new object=load.load_3159 phases=1 conn=wye bus1=bus3159.3.0 kv=7.9677 kw=10.020399999999999 kvar=4.454077187
new object=load.load_3160 phases=1 conn=wye bus1=bus3160.3.0 kv=7.9677 kw=4.358299999999999 kvar=1.397564815
new object=load.load_3161 phases=1 conn=wye bus1=bus3161.3.0 kv=7.9677 kw=2.8125999999999998 kvar=0.390998824
new object=load.load_3162 phases=1 conn=wye bus1=bus3162.3.0 kv=7.9677 kw=3.8437499999999996 kvar=0.761469977
new object=transformer.sub_xfmr phases=3 windings=2 xhl=6.265911 buses=[eq_source_bus.1.2.3,bus_xfmr.1.2.3.0] conns=[delta,wye] kvs=[69,13.8] kvas=[10000,10000] taps=[1,1] %rs=[0.6265909,0.6265909]
new object=transformer.sub_regulator_a phases=1 bank=reg1 windings=2 xhl=0.01 buses=[bus_xfmr.1,bus1.1] conns=[wye,wye] kvs=[7.9677,7.9677] kvas=[3500,3500] taps=[1,1.025] %rs=[0.001,0.001] numtaps=32 maxtap=1.1 mintap=0.9
new object=transformer.sub_regulator_b phases=1 bank=reg1 windings=2 xhl=0.01 buses=[bus_xfmr.2,bus1.2] conns=[wye,wye] kvs=[7.9677,7.9677] kvas=[3500,3500] taps=[1,1.025] %rs=[0.001,0.001] numtaps=32 maxtap=1.1 mintap=0.9
new object=transformer.sub_regulator_c phases=1 bank=reg1 windings=2 xhl=0.01 buses=[bus_xfmr.3,bus1.3] conns=[wye,wye] kvs=[7.9677,7.9677] kvas=[3500,3500] taps=[1,1.025] %rs=[0.001,0.001] numtaps=32 maxtap=1.1 mintap=0.9
new object=regcontrol.reg_contr_a transformer=sub_regulator_a bus=bus1.1 winding=2 tapwinding=2 vreg=123.00000 r=0.00000 x=0.00000 band=2 ptratio=66.395279 vlimit=129.00000
new object=regcontrol.reg_contr_b transformer=sub_regulator_b bus=bus1.2 winding=2 tapwinding=2 vreg=123.00000 r=0.00000 x=0.00000 band=2 ptratio=66.395279 vlimit=129.00000
new object=regcontrol.reg_contr_c transformer=sub_regulator_c bus=bus1.3 winding=2 tapwinding=2 vreg=123.00000 r=0.00000 x=0.00000 band=2 ptratio=66.395279 vlimit=129.00000
new object=capacitor.cap_201 phases=3 bus1=bus2038.1.2.3 kv=13.80000 kvar=[50] enabled=true
new object=capacitor.cap_301 phases=3 bus1=bus3079.1.2.3 kv=13.80000 kvar=[50] enabled=true
makebuslist
set voltagebases=[69,13.8,0.208]
setbusxy bus=eq_source_bus x=0 y=0
setbusxy bus=bus1001 x=10.19 y=13.04
setbusxy bus=bus1002 x=8.9 y=14.11
setbusxy bus=bus1003 x=8.9 y=13.36
setbusxy bus=bus1004 x=7.77 y=14.11
setbusxy bus=bus1005 x=6.4 y=14.11
setbusxy bus=bus1006 x=5.15 y=14.11
setbusxy bus=bus1007 x=5.15 y=12.98
setbusxy bus=bus1008 x=3.71 y=14.11
setbusxy bus=bus1009 x=2.4 y=14.11
setbusxy bus=bus1010 x=1.4 y=14.11
setbusxy bus=bus1011 x=2.4 y=12.98
setbusxy bus=bus1012 x=2.4 y=12.11
setbusxy bus=bus1013 x=2.4 y=11.23
setbusxy bus=bus1014 x=3.85 y=11.23
setbusxy bus=bus1015 x=4.85 y=11.23
setbusxy bus=bus1016 x=2.4 y=10.48
setbusxy bus=bus1017 x=2.4 y=9.73
setbusxy bus=bus2001 x=10.52 y=12.23
setbusxy bus=bus2002 x=9.56 y=7.58
setbusxy bus=bus2003 x=8.3 y=7.58
...